LTspice 26.0.1 for Windows
Circuit: C:\Users\DELL\Documents\IoT Year 2\Spring Semester\Analog Electronics 1 IT24SP\Assignments 2.4\Diode_real_1N4148.net
Start Time: Thu Jan 29 23:01:27 2026
solver = Normal
Maximum thread count: 4
tnom = 27
temp = 75
method = trap
.OP point found by inspection.
Total elapsed time: 0.206 seconds.

Files loaded:
C:\Users\DELL\Documents\IoT Year 2\Spring Semester\Analog Electronics 1 IT24SP\Assignments 2.4\Diode_real_1N4148.net
C:\Users\DELL\AppData\Local\LTspice\lib\cmp\standard.dio

