LTspice 26.0.1 for Windows
Circuit: C:\Users\DELL\Documents\IoT Year 2\Spring Semester\Analog Electronics 1 IT24SP\LTspice\Simple_Resistive_Voltage_Divider.net
Start Time: Tue Jan 20 15:36:47 2026
solver = Normal
Maximum thread count: 4
tnom = 27
temp = 27
method = trap
Direct Newton iteration succeeded in finding operating point.
Total elapsed time: 0.211 seconds.

Files loaded:
C:\Users\DELL\Documents\IoT Year 2\Spring Semester\Analog Electronics 1 IT24SP\LTspice\Simple_Resistive_Voltage_Divider.net

